145
Generated by MolSim. See http://openbabel.org/wiki/XYZ_(format) for file format doku.
Ar -1.03900 3.31572 -0.836535 
Ar -1.48031 3.35891 0.400317 
Ar -0.406610 2.64507 1.18727 
Ar 0.244650 2.63715 3.50425 
Ar 0.0367893 2.46449 4.48415 
Ar -0.126264 3.84766 -1.05357 
Ar -0.688087 3.95474 1.16608 
Ar -0.130977 3.21473 2.43817 
Ar 0.546703 3.63402 3.60507 
Ar 0.284667 4.06588 4.82691 
Ar -1.23003 4.82186 0.648256 
Ar 0.256477 4.01219 0.310288 
Ar 0.186688 4.56059 1.54117 
Ar -0.172476 4.18508 2.69997 
Ar -0.0741108 4.39177 3.92370 
Ar -0.175358 5.28704 0.224782 
Ar -0.940094 4.96537 1.69751 
Ar 0.0970869 5.70069 2.23966 
Ar 0.203882 5.26897 3.36113 
Ar 0.477542 5.15948 4.69901 
Ar 0.336105 6.53195 0.463315 
Ar -0.503725 6.34005 1.21699 
Ar 0.186635 6.57313 2.79121 
Ar 0.700076 6.51633 3.95716 
Ar -0.301074 5.92222 4.12062 
Ar 0.463809 2.75526 -1.34279 
Ar 1.62172 3.69154 1.49438 
Ar 1.59983 3.03139 2.57696 
Ar 1.34699 2.92214 4.05522 
Ar 1.15804 3.45868 5.14867 
Ar 0.787102 3.64305 -0.534442 
Ar 0.303529 3.52090 1.24352 
Ar 0.790742 3.73428 2.23932 
Ar 1.73847 3.81542 3.24467 
Ar 2.32184 3.21170 4.75446 
Ar 0.810304 4.68799 -0.483878 
Ar 1.28332 4.73560 1.40206 
Ar 0.880155 4.84604 2.57309 
Ar 1.11794 4.59399 3.77936 
Ar 1.52950 4.45479 4.85958 
Ar 1.39194 5.35932 0.324849 
Ar 0.753708 5.62296 1.27985 
Ar 1.11256 5.96617 2.77945 
Ar 1.38073 5.75102 3.85202 
Ar 1.78211 5.53072 4.86408 
Ar 1.76892 5.68514 -0.608224 
Ar 1.39264 6.55567 0.996237 
Ar 0.497369 6.60172 1.73335 
Ar 1.41665 6.90680 3.19710 
Ar 0.739413 6.15085 5.07199 
Ar 1.39909 3.10534 -2.48739 
Ar 2.73118 3.36422 1.33933 
Ar 2.58568 2.49109 2.71838 
Ar 1.68113 1.87937 4.29506 
Ar 2.53128 2.17473 5.32169 
Ar 3.16309 4.25886 -0.486717 
Ar 2.13551 4.18745 0.606083 
Ar 2.64683 3.48813 2.39291 
Ar 2.25779 2.87811 3.73310 
Ar 2.96804 3.21733 5.62416 
Ar 1.91564 4.54678 -0.503250 
Ar 2.79719 4.60937 1.29472 
Ar 1.87531 4.51434 2.30512 
Ar 2.38432 4.18308 4.09674 
Ar 2.55333 4.11822 5.21727 
Ar 2.58733 5.33834 0.521936 
Ar 2.41970 6.21779 1.30710 
Ar 1.77751 5.49470 1.86262 
Ar 1.96531 5.11562 3.15504 
Ar 2.48161 5.34549 4.18377 
Ar 2.49616 6.32981 -0.223269 
Ar 2.18748 7.45516 1.43674 
Ar 1.65119 6.55563 2.02667 
Ar 2.38037 6.28623 3.31245 
Ar 1.94130 6.71656 4.26766 
Ar 3.77084 3.45888 -0.916948 
Ar 4.21179 2.52470 1.11107 
Ar 3.89587 2.27566 2.41620 
Ar 3.54931 2.52323 3.55126 
Ar 3.40384 1.57741 3.95300 
Ar 4.55043 3.38524 0.104419 
Ar 3.62205 3.56896 0.897320 
Ar 3.87221 3.45529 2.17913 
Ar 3.10503 3.44346 3.47012 
Ar 3.32429 3.03952 4.58747 
Ar 3.76565 5.42474 -0.703118 
Ar 3.95397 4.47223 1.40663 
Ar 2.90238 4.52728 2.36149 
Ar 3.08347 4.66865 3.43309 
Ar 3.43559 4.04479 4.63075 
Ar 3.67397 5.09258 0.396586 
Ar 3.43027 5.47765 1.54731 
Ar 2.61523 5.80484 2.38830 
Ar 3.31334 5.77035 3.42771 
Ar 3.63990 5.01504 4.26874 
Ar 3.97503 6.04498 0.0364444 
Ar 3.60853 6.60137 1.22811 
Ar 2.70805 6.82762 2.45150 
Ar 3.41119 6.78924 3.28698 
Ar 3.08108 6.38759 4.26634 
Ar 4.90942 2.37819 -0.370475 
Ar 5.42390 2.46462 0.563244 
Ar 5.09134 2.22893 1.95005 
Ar 4.36779 1.86898 3.58351 
Ar 4.26596 2.29588 4.55959 
Ar 5.66584 3.53805 0.153877 
Ar 4.78864 3.49729 1.29884 
Ar 4.57741 2.94214 2.91702 
Ar 4.18165 3.52285 4.05542 
Ar 3.96645 3.19086 5.39985 
Ar 4.86012 5.06673 -0.616690 
Ar 4.99762 4.38584 0.706978 
Ar 4.67215 4.14354 2.18883 
Ar 3.93508 4.19055 2.99095 
Ar 4.37780 4.22337 4.84659 
Ar 4.95342 5.50179 0.477461 
Ar 4.51307 5.49452 1.46266 
Ar 3.62877 5.21856 2.56792 
Ar 4.30881 5.15291 3.42435 
Ar 4.87597 5.02799 4.28073 
Ar 5.02177 6.43396 -0.244855 
Ar 4.62275 6.44616 0.878257 
Ar 3.62474 6.26391 2.32443 
Ar 4.45497 6.17047 2.91597 
Ar 4.28413 5.88969 4.18913 
Ar -0.811779 0.654498 -0.395993 
Ar 0.858318 0.601092 -0.196250 
Ar 2.81333 2.22314 0.0244741 
Ar 4.12243 1.09353 -0.516993 
Ar -0.189257 1.17513 0.312929 
Ar 1.46907 1.35258 0.541076 
Ar 3.01241 2.44260 1.01049 
Ar 0.985201 1.05960 1.51894 
Ar 2.23297 0.903356 2.39244 
Ar 1.65775 0.714463 3.63579 
Ar -0.703129 2.34085 0.258147 
Ar 1.62549 2.65433 -0.417792 
Ar 3.79845 2.41327 -0.810835 
Ar 0.826498 2.45123 0.842846 
Ar 1.83726 2.63495 1.60192 
Ar 1.30559 2.02023 3.21845 
Ar 0.286469 3.02903 0.0657781 
Ar 2.38917 3.18910 0.189032 
Ar 0.649850 2.32187 1.88751 
Ar 1.25160 3.37899 0.477101 
