145
Generated by MolSim. See http://openbabel.org/wiki/XYZ_(format) for file format doku.
Ar -0.470052 -1.25468 1.13710 
Ar -0.904687 -0.161954 0.977798 
Ar -1.42686 -2.83547 1.60331 
Ar 0.353789 -3.55044 3.57913 
Ar 1.99210 -3.74093 6.45045 
Ar -1.27672 -0.444755 -2.42981 
Ar -1.20843 -2.34149 0.370100 
Ar -0.651285 -3.02403 3.33357 
Ar 0.0811212 -2.59311 2.68246 
Ar 0.654853 -3.17757 4.54212 
Ar -1.93260 -0.728665 1.70011 
Ar -0.243826 -1.99145 0.202317 
Ar -0.571644 -2.32574 1.89926 
Ar 0.106505 -1.60110 2.17075 
Ar -0.0252145 -2.59217 4.01420 
Ar -0.704632 -0.853229 2.12426 
Ar -1.84131 -1.90543 1.25839 
Ar 0.942681 -0.989695 1.80175 
Ar 1.08918 -1.63003 2.78303 
Ar 0.961282 -1.50750 4.77255 
Ar 0.377016 1.37161 1.26197 
Ar 0.596732 0.966455 2.45744 
Ar 0.0850365 -0.279289 2.80124 
Ar 0.141212 -1.51723 3.89667 
Ar 1.20926 -0.111160 5.17233 
Ar 0.889474 -0.845731 -2.30046 
Ar 1.23868 -4.32728 1.75630 
Ar 1.29139 -3.55180 2.63146 
Ar 1.46478 -3.76238 3.73012 
Ar 0.902665 -2.40205 5.37766 
Ar -0.0261488 -0.428859 -1.55014 
Ar -0.0324875 -2.72915 0.949361 
Ar 0.153662 -3.83257 1.66614 
Ar 2.43173 -3.29550 3.77456 
Ar 2.74268 -4.20640 5.53370 
Ar 0.0220485 -1.44104 -0.842629 
Ar 0.703935 -1.86869 1.10899 
Ar 0.936594 -2.87915 1.89132 
Ar 0.990618 -2.73934 3.33919 
Ar 1.49451 -2.54907 4.46390 
Ar 0.982907 -1.45292 0.0456897 
Ar 0.340088 -0.795196 0.795428 
Ar 2.06634 -1.22930 2.51066 
Ar 1.54496 -1.72279 3.89202 
Ar 2.07490 -1.56108 5.09112 
Ar 0.692824 -0.583328 -0.396189 
Ar 1.43487 -0.771434 1.00794 
Ar 0.922093 0.130626 1.72545 
Ar 0.762068 -0.623309 3.61817 
Ar 1.25807 -1.40780 5.93179 
Ar -0.999817 -2.25784 -9.78245 
Ar 2.19610 -3.78180 0.776694 
Ar 3.37346 -4.59223 2.60829 
Ar 2.11444 -4.08929 4.48192 
Ar 3.01316 -5.23735 5.47953 
Ar 4.18974 -1.14188 0.304916 
Ar 1.67101 -2.68349 0.616538 
Ar 2.66226 -3.73257 2.62458 
Ar 2.89799 -4.72453 4.46896 
Ar 3.56662 -5.09329 6.46309 
Ar 2.45900 -1.86052 -0.158239 
Ar 2.90788 -2.40543 1.13193 
Ar 2.12192 -2.89223 2.09044 
Ar 2.46449 -2.56354 5.07112 
Ar 1.67660 -3.39871 5.47666 
Ar 2.08969 -1.53656 0.730715 
Ar 2.40734 -0.968258 1.57610 
Ar 1.76401 -1.95361 1.66505 
Ar 1.96471 -2.24343 3.15170 
Ar 2.58701 -2.08849 4.09564 
Ar 2.07638 -0.738304 0.0492731 
Ar 1.94831 0.0953062 1.96913 
Ar 1.38423 -0.331930 2.84416 
Ar 2.23005 -0.819793 3.57032 
Ar 1.88926 -0.623425 4.58555 
Ar 6.07287 -0.166220 -2.30636 
Ar 5.65323 -3.50117 1.57642 
Ar 4.42047 -3.75051 3.62859 
Ar 3.70138 -5.64944 4.35852 
Ar 4.34534 -5.24345 5.54821 
Ar 5.80544 -3.50200 0.391922 
Ar 3.71451 -3.34649 0.496649 
Ar 2.91840 -3.86978 1.50369 
Ar 3.41174 -3.86502 3.77697 
Ar 3.78641 -4.44371 5.00231 
Ar 4.76579 0.148301 -2.00384 
Ar 3.73351 -2.92301 1.64622 
Ar 3.10346 -2.78619 2.65226 
Ar 3.26774 -2.77453 3.68486 
Ar 3.63394 -3.42412 5.58631 
Ar 3.64612 -2.12737 0.387621 
Ar 3.81759 -1.83975 1.55731 
Ar 2.84564 -1.87197 2.00758 
Ar 3.01477 -1.75569 3.11838 
Ar 3.69733 -2.42987 4.88110 
Ar 3.05434 -1.02350 0.339400 
Ar 2.34761 -0.0988052 0.888997 
Ar 2.69394 -0.347127 2.65111 
Ar 3.83269 -0.836546 3.40415 
Ar 2.87956 -1.11500 4.46482 
Ar 5.11853 -3.52893 -1.01893 
Ar 7.14238 -3.79949 1.21284 
Ar 5.37500 -3.90934 2.78469 
Ar 3.29091 -6.47672 3.38416 
Ar 4.56839 -5.12869 4.17900 
Ar 8.61922 -4.30572 1.09364 
Ar 4.31390 -2.69714 -0.169386 
Ar 4.09995 -3.42717 4.59021 
Ar 2.94601 -3.49925 4.64705 
Ar 4.75040 -3.72608 5.84537 
Ar 6.01146 -0.199511 0.155338 
Ar 4.87625 -0.626618 -0.474699 
Ar 4.77393 -3.08713 2.21781 
Ar 4.03413 -3.79707 2.60114 
Ar 4.82885 -2.88377 5.16745 
Ar 4.72610 -2.46128 1.31810 
Ar 4.52151 -0.761987 2.47298 
Ar 4.02875 -1.93658 2.71317 
Ar 4.29486 -2.92085 3.14139 
Ar 4.63728 -2.45680 4.05573 
Ar 3.82083 -0.242152 0.711289 
Ar 4.22867 -0.917246 1.39441 
Ar 3.39796 -1.06533 2.37752 
Ar 4.67588 -1.46567 3.44290 
Ar 3.63805 -1.75725 4.11496 
Ar -2.34521 -4.06436 -2.56610 
Ar -0.570491 -3.86322 0.991246 
Ar 4.00641 -1.67588 -0.576479 
Ar 5.23715 -1.80513 -1.30198 
Ar -1.28852 -1.81421 -1.17921 
Ar -0.345653 -2.38525 -1.14154 
Ar 3.31435 -3.58885 -0.737506 
Ar -0.380099 -2.95888 -0.192297 
Ar 1.88146 -4.74299 5.24139 
Ar 0.822559 -4.27482 5.03793 
Ar -1.97647 -1.60310 0.169588 
Ar 1.10604 -2.06877 -0.728241 
Ar 5.20633 -2.81623 -1.82024 
Ar 0.651777 -2.58457 0.173242 
Ar 1.93113 -3.57763 -0.531487 
Ar 2.47162 -4.49763 3.45945 
Ar 0.0232230 -1.43033 -2.79030 
Ar 2.57553 -3.01458 0.117032 
Ar 0.951456 -3.64117 0.830263 
Ar 0.536801 -1.89643 -1.88068 
