145
Generated by MolSim. See http://openbabel.org/wiki/XYZ_(format) for file format doku.
Ar -0.00352595 9.60573 0.00521093 
Ar 0.0142354 9.60831 1.12634 
Ar 0.0173477 9.61281 2.24999 
Ar 0.00740153 9.61243 3.37333 
Ar 0.0143356 9.60727 4.48998 
Ar 0.0144835 10.7221 0.0145488 
Ar 0.0174245 10.7273 1.12731 
Ar 0.0164973 10.7311 2.24999 
Ar 0.0243270 10.7221 3.37273 
Ar 0.0124653 10.7244 4.48548 
Ar 0.0151892 11.8491 0.0147795 
Ar 0.0217196 11.8573 1.12740 
Ar 0.0182341 11.8444 2.24996 
Ar 0.0233052 11.8516 3.37258 
Ar 0.0148251 11.8414 4.48525 
Ar 0.0142567 12.9691 0.0145700 
Ar 0.0211270 12.9740 1.12724 
Ar 0.0142989 12.9624 2.24999 
Ar 0.0242760 12.9708 3.37271 
Ar 0.0202586 12.9827 4.48539 
Ar 0.00748468 14.0808 0.00999296 
Ar 0.0150183 14.0951 1.12668 
Ar 0.0128324 14.0871 2.25003 
Ar 0.00671100 14.0801 3.37338 
Ar 0.0102031 14.0947 4.49004 
Ar 1.11631 9.61758 0.0145829 
Ar 1.12285 9.61312 1.12731 
Ar 1.12277 9.62262 2.25003 
Ar 1.12606 9.61331 3.37276 
Ar 1.12582 9.61245 4.48543 
Ar 1.12959 10.7244 0.0199186 
Ar 1.11927 10.7289 1.12801 
Ar 1.12285 10.7210 2.25010 
Ar 1.13266 10.7235 3.37200 
Ar 1.12791 10.7251 4.47998 
Ar 1.12551 11.8477 0.0202552 
Ar 1.12583 11.8546 1.12816 
Ar 1.12417 11.8501 2.24998 
Ar 1.12730 11.8467 3.37190 
Ar 1.12352 11.8429 4.47978 
Ar 1.13478 12.9769 0.0200286 
Ar 1.12461 12.9727 1.12805 
Ar 1.12796 12.9677 2.24994 
Ar 1.13359 12.9705 3.37193 
Ar 1.12613 12.9733 4.48003 
Ar 1.13009 14.0887 0.0145306 
Ar 1.13628 14.0823 1.12719 
Ar 1.11843 14.0791 2.24997 
Ar 1.12691 14.0851 3.37278 
Ar 1.13005 14.0920 4.48551 
Ar 2.25209 9.61433 0.0147218 
Ar 2.24932 9.62432 1.12727 
Ar 2.25805 9.62968 2.25005 
Ar 2.24530 9.62121 3.37273 
Ar 2.24877 9.62036 4.48519 
Ar 2.25264 10.7265 0.0201666 
Ar 2.25368 10.7266 1.12807 
Ar 2.25097 10.7293 2.25007 
Ar 2.24309 10.7281 3.37196 
Ar 2.25719 10.7254 4.47975 
Ar 2.25808 11.8465 0.0204471 
Ar 2.24743 11.8533 1.12822 
Ar 2.24489 11.8558 2.25009 
Ar 2.25442 11.8561 3.37184 
Ar 2.24829 11.8455 4.47947 
Ar 2.25220 12.9805 0.0202800 
Ar 2.24759 12.9728 1.12815 
Ar 2.24440 12.9688 2.24998 
Ar 2.25328 12.9700 3.37187 
Ar 2.25003 12.9682 4.47975 
Ar 2.24747 14.0906 0.0147644 
Ar 2.25510 14.0744 1.12721 
Ar 2.25488 14.0722 2.24996 
Ar 2.24931 14.0884 3.37272 
Ar 2.25504 14.0817 4.48524 
Ar 3.36635 9.61073 0.0145698 
Ar 3.37516 9.61912 1.12726 
Ar 3.37969 9.62110 2.24993 
Ar 3.36835 9.61959 3.37268 
Ar 3.37416 9.61626 4.48547 
Ar 3.37637 10.7191 0.0200195 
Ar 3.37451 10.7240 1.12801 
Ar 3.37052 10.7237 2.24993 
Ar 3.36997 10.7305 3.37196 
Ar 3.37808 10.7254 4.48005 
Ar 3.37837 11.8464 0.0202172 
Ar 3.37358 11.8548 1.12810 
Ar 3.37053 11.8478 2.25007 
Ar 3.36560 11.8535 3.37189 
Ar 3.37119 11.8572 4.47971 
Ar 3.37409 12.9714 0.0200010 
Ar 3.36901 12.9724 1.12801 
Ar 3.37249 12.9655 2.25003 
Ar 3.37185 12.9707 3.37204 
Ar 3.37082 12.9761 4.47997 
Ar 3.37449 14.0858 0.0145887 
Ar 3.37373 14.0804 1.12730 
Ar 3.36952 14.0776 2.24999 
Ar 3.37102 14.0837 3.37279 
Ar 3.37393 14.0772 4.48538 
Ar 4.48769 9.60141 0.0100009 
Ar 4.48778 9.62402 1.12669 
Ar 4.48273 9.60764 2.24995 
Ar 4.49031 9.61597 3.37333 
Ar 4.49167 9.61115 4.49003 
Ar 4.48665 10.7242 0.0146581 
Ar 4.47538 10.7239 1.12722 
Ar 4.48225 10.7299 2.24988 
Ar 4.47706 10.7256 3.37281 
Ar 4.49421 10.7253 4.48551 
Ar 4.48879 11.8466 0.0147367 
Ar 4.47724 11.8390 1.12732 
Ar 4.47576 11.8532 2.24996 
Ar 4.47733 11.8540 3.37265 
Ar 4.48118 11.8475 4.48526 
Ar 4.48189 12.9744 0.0145362 
Ar 4.48212 12.9700 1.12724 
Ar 4.47893 12.9717 2.25005 
Ar 4.47546 12.9726 3.37273 
Ar 4.49123 12.9765 4.48546 
Ar 4.50002 14.0853 0.00996055 
Ar 4.48331 14.0847 1.12662 
Ar 4.48534 14.0906 2.25000 
Ar 4.48159 14.0884 3.37338 
Ar 4.48739 14.0939 4.49003 
Ar 0.00975170 0.157571 0.00309099 
Ar 1.13233 0.160413 0.00897163 
Ar 2.24606 0.154223 0.00899615 
Ar 3.37229 0.150826 0.00424061 
Ar 0.573065 0.161490 0.973529 
Ar 1.68732 0.164514 0.974301 
Ar 2.79656 0.154814 0.972683 
Ar 1.13086 0.164217 1.94009 
Ar 2.24144 0.155958 1.94063 
Ar 1.68175 0.146463 2.91583 
Ar 0.572826 1.06379 0.330446 
Ar 1.68659 1.06729 0.335955 
Ar 2.79924 1.06526 0.329990 
Ar 1.13333 1.06619 1.29300 
Ar 2.24307 1.06586 1.29378 
Ar 1.68633 1.06193 2.26279 
Ar 1.12721 1.97770 0.653063 
Ar 2.24592 1.97672 0.652907 
Ar 1.68831 1.96468 1.61632 
Ar 1.68994 2.89280 0.974957 
