1400
Generated by MolSim. See http://openbabel.org/wiki/XYZ_(format) for file format doku.
Ar 2.57075 1.74114 0.179054
Ar 2.39906 1.92006 1.64554
Ar 1.00217 1.87828 1.35155
Ar 1.07177 2.73020 0.106917
Ar 5.26612 0.743790 1.86714
Ar 4.33905 1.91716 1.91988
Ar 5.13667 1.60280 1.32379
Ar 3.14785 0.525838 0.0302845
Ar 4.67625 1.37751 0.243279
Ar 5.68815 0.247997 0.0371380
Ar 5.91405 2.70108 2.62299
Ar 7.76190 0.692280 0.798767
Ar 7.10973 1.21780 1.93477
Ar 8.67843 0.515137 0.709188
Ar 6.29106 0.641043 1.84540
Ar 9.02438 1.97903 2.52394
Ar 10.3184 2.43247 0.775696
Ar 10.6089 0.580989 2.77322
Ar 9.69537 0.712299 0.955633
Ar 14.2166 0.0789924 1.41987
Ar 14.4003 0.804042 0.551562
Ar 14.6193 0.807215 2.90344
Ar 16.7196 2.30855 0.649299
Ar 15.4996 0.448597 2.88589
Ar 18.6312 2.72421 1.44872
Ar 19.5091 2.25374 2.80405
Ar 20.2121 0.178427 0.163719
Ar 24.2304 1.14680 1.72876
Ar 22.0219 0.415404 1.22182
Ar 24.1659 0.242506 1.80219
Ar 25.1292 0.262239 2.22335
Ar 25.7493 1.53595 0.651635
Ar 25.3434 2.61868 0.217194
Ar 24.2463 0.389312 0.135258
Ar 26.8541 2.79171 2.15688
Ar 25.5438 0.537197 0.0480775
Ar 27.2639 1.55488 2.94548
Ar 30.0965 0.231195 2.30168
Ar 27.4471 2.34091 2.24589
Ar 29.2017 1.81316 1.68639
Ar 30.0367 2.13853 0.533958
Ar 27.6059 0.715565 0.111576
Ar 31.0023 2.72395 1.73586
Ar 31.6753 1.92984 2.43779
Ar 34.1855 0.918283 1.58372
Ar 35.1317 1.35152 1.13961
Ar 33.9807 0.714847 0.725209
Ar 33.6297 1.94606 2.02708
Ar 36.2570 2.50814 0.621002
Ar 38.3083 3.02895 1.53056
Ar 39.2013 0.998029 1.46224
Ar 40.5525 1.45772 0.850087
Ar 41.2401 2.87342 1.90737
Ar 39.6570 1.71703 1.93390
Ar 39.4889 2.26406 0.134507
Ar 41.0171 2.93206 0.927924
Ar 42.3484 1.42448 2.86480
Ar 45.1205 1.21576 1.57920
Ar 44.4222 2.57944 2.71964
Ar 47.8756 0.337753 0.973451
Ar 47.9797 1.76500 0.856686
Ar 45.9200 1.27798 1.78200
Ar 47.0719 1.68112 1.19576
Ar 47.5929 1.25331 0.0717038
Ar 50.3263 0.288577 2.10370
Ar 50.2763 0.872177 0.847822
Ar 50.2244 2.41014 0.612427
Ar 49.4038 1.46945 1.81792
Ar 49.3822 2.42596 2.42759
Ar 52.1580 0.164007 2.31669
Ar 53.5836 1.29923 2.41451
Ar 53.6295 2.20838 1.94103
Ar 55.7770 1.66720 2.10937
Ar 55.8342 1.44992 0.884598
Ar 58.7231 2.39892 2.25027
Ar 57.7009 0.951112 1.15101
Ar 0.986057 3.19016 1.01900
Ar 2.05487 3.23909 1.49175
Ar 0.787819 4.03172 0.911013
Ar 1.29845 5.42923 1.53176
Ar 2.78974 4.52823 2.33537
Ar 4.25926 5.06086 1.47595
Ar 3.18334 3.28994 2.74791
Ar 5.07900 4.20169 2.75318
Ar 5.44570 3.26023 1.59186
Ar 3.05037 3.86874 1.60009
Ar 6.93322 4.56426 0.791340
Ar 7.63349 4.40738 1.97144
Ar 9.83197 4.75051 1.73330
Ar 11.8930 5.35816 2.97460
Ar 11.2773 4.67719 1.24308
Ar 11.5207 5.59801 0.859082
Ar 14.5383 3.71290 1.57046
Ar 13.2877 5.12756 0.155210
Ar 13.4006 5.88594 2.37731
Ar 16.4127 3.25606 1.32214
Ar 17.7763 3.11056 1.33770
Ar 17.0614 5.26792 2.86795
Ar 17.2333 5.54231 1.93949
Ar 15.9645 6.02068 2.89842
Ar 20.3653 4.30366 2.47571
Ar 20.3995 3.83549 0.672756
Ar 20.4620 5.26195 2.95299
Ar 21.3263 5.56959 2.30635
Ar 23.3507 4.30535 2.53629
Ar 23.3237 3.24530 2.30973
Ar 23.5830 5.08932 1.95032
Ar 21.8794 5.51231 0.862103
Ar 24.7585 4.55879 1.45436
Ar 26.8096 3.99578 2.12471
Ar 25.1446 3.49625 0.549085
Ar 26.2768 5.56425 3.00862
Ar 28.8576 4.44189 1.23626
Ar 27.6166 5.20428 1.82694
Ar 29.7461 3.74596 1.74143
Ar 28.8152 5.35055 0.385766
Ar 28.1841 4.46011 2.64466
Ar 29.0377 5.87660 2.77160
Ar 31.6723 3.72996 0.137832
Ar 33.7568 4.67955 2.15934
Ar 36.0052 3.10292 2.21644
Ar 36.9417 5.09780 1.36376
Ar 38.9498 4.49482 1.08060
Ar 36.6404 3.33230 0.207909
Ar 36.5709 3.96529 1.62930
Ar 38.6851 5.91634 1.25630
Ar 37.2555 6.04759 2.50650
Ar 39.7588 4.25211 1.65104
Ar 40.0155 3.84122 0.0459917
Ar 42.3121 5.37700 0.761620
Ar 44.8578 4.09363 1.77807
Ar 43.6094 4.22004 2.74761
Ar 44.4854 5.19334 1.29498
Ar 42.6267 5.67040 1.86025
Ar 47.0380 3.65307 1.03794
Ar 46.8794 4.66912 1.55048
Ar 46.4603 4.04697 0.522035
Ar 50.0321 4.78746 2.59134
Ar 50.8898 5.71995 1.67670
Ar 48.6392 6.01205 2.62894
Ar 54.1637 4.52883 0.555789
Ar 53.3724 4.45391 1.14532
Ar 51.8703 3.75905 2.68188
Ar 53.1923 5.53030 1.16557
Ar 56.1688 3.64915 2.60202
Ar 56.2827 4.76433 0.873619
Ar 60.2836 4.45613 0.830540
Ar 57.8805 3.86914 2.77093
Ar 61.6769 4.91070 1.95249
Ar 61.2796 4.42851 0.242895
Ar 64.5221 5.54590 2.57645
Ar 1.36366 7.64549 1.38200
Ar 0.191245 7.09564 0.416686
Ar 5.42096 6.54771 2.63019
Ar 3.24141 6.98652 0.0615960
Ar 5.24427 8.11530 2.37810
Ar 7.56716 7.91670 0.563320
Ar 8.82330 8.26615 1.25928
Ar 11.5878 6.61691 2.32757
Ar 11.0572 7.03803 0.261480
Ar 9.49138 6.62950 1.89824
Ar 9.75266 8.83881 2.72203
Ar 11.5328 8.86095 1.23915
Ar 12.4607 8.42190 2.06761
Ar 14.8553 7.14691 1.26471
Ar 13.3857 7.72883 2.83306
Ar 13.6793 6.11397 0.283054
Ar 17.7565 6.06667 0.976886
Ar 19.3613 6.32532 1.65668
Ar 19.0403 7.83402 2.70564
Ar 19.7378 6.10723 0.665970
Ar 19.4175 8.26773 1.77899
Ar 20.7207 6.32052 1.25378
Ar 20.3553 8.12232 1.08467
Ar 21.1009 8.29178 1.81853
Ar 23.6922 7.62253 0.823713
Ar 21.2602 9.06538 2.90869
Ar 26.7023 7.63119 0.654765
Ar 24.6189 8.03260 2.24493
Ar 27.4829 6.59197 1.34898
Ar 31.2681 6.83803 0.931256
Ar 31.0897 8.54702 0.463069
Ar 33.9554 8.27787 2.47086
Ar 34.7023 6.15189 0.607014
Ar 40.4185 6.32920 0.941926
Ar 41.4430 8.69849 1.31259
Ar 39.8193 8.43847 2.86708
Ar 42.4115 7.07152 2.49304
Ar 41.4478 8.95788 0.0760858
Ar 39.4562 6.57423 0.287521
Ar 43.5303 9.04116 1.79133
Ar 45.3581 8.78324 1.16388
Ar 45.8200 7.78613 0.0260086
Ar 47.2363 7.33975 2.28230
Ar 48.4778 8.90810 1.90991
Ar 50.5901 7.14807 2.13875
Ar 51.4854 7.97705 0.0301749
Ar 49.1275 9.07375 2.80997
Ar 57.4606 8.20844 2.93150
Ar 58.0387 7.54068 0.139823
Ar 57.6185 6.95689 1.59695
Ar 61.6759 8.19934 1.39178
Ar 60.8788 8.47467 2.29586
Ar 1.04235 9.62843 0.234565
Ar 1.06421 10.1050 2.87585
Ar 4.78193 11.5000 1.71536
Ar 6.00013 9.77114 0.729913
Ar 4.75005 10.2923 2.87680
Ar 3.45203 9.97202 2.47243
Ar 8.90114 9.19679 2.29126
Ar 8.60053 11.0156 0.388960
Ar 8.68015 10.1259 0.750180
Ar 7.27914 11.5667 0.549468
Ar 7.90547 11.7617 2.08482
Ar 6.21212 12.0987 2.47906
Ar 10.3744 11.0346 1.24197
Ar 9.44437 9.44858 1.49292
Ar 9.50036 11.2265 1.42788
Ar 10.6353 9.18890 0.623574
Ar 11.8099 9.53342 2.10333
Ar 10.8429 10.0588 1.00832
Ar 11.4260 11.1307 0.287424
Ar 9.56579 10.3739 2.14892
Ar 13.7002 9.33745 2.61308
Ar 12.1786 9.83832 0.0129999
Ar 13.7527 11.9108 2.43456
Ar 16.6403 10.4025 1.99575
Ar 17.0461 10.9623 2.82879
Ar 16.6177 11.3838 0.912216
Ar 16.2718 11.9135 1.71936
Ar 16.9722 12.0813 2.18848
Ar 18.6251 11.0903 1.52783
Ar 21.0276 11.2332 0.657595
Ar 21.4436 9.90808 1.58334
Ar 23.0506 11.0034 1.80246
Ar 22.7884 10.9271 0.0424529
Ar 24.1731 10.8414 0.764608
Ar 25.8826 11.1495 1.68160
Ar 29.9249 9.64751 0.250255
Ar 27.5988 10.5009 0.170554
Ar 29.2717 10.6100 2.70336
Ar 29.2016 11.1171 1.19897
Ar 28.7691 10.1590 0.408797
Ar 29.5997 11.6713 1.97179
Ar 31.5996 9.94428 0.391541
Ar 32.3365 10.6890 0.456407
Ar 30.9555 12.0132 1.01240
Ar 34.9101 11.3447 2.60335
Ar 35.6456 11.6177 1.37277
Ar 34.6801 9.84847 2.79566
Ar 33.5052 10.1632 2.19548
Ar 33.8577 11.5470 1.44739
Ar 36.1087 10.7160 0.921848
Ar 38.3138 9.10700 1.76481
Ar 39.1076 10.8016 1.67290
Ar 39.3830 11.4715 0.471265
Ar 40.8192 9.58993 2.43182
Ar 42.2357 10.9969 0.219288
Ar 44.1298 9.24607 0.0348486
Ar 42.9324 10.8550 1.54420
Ar 43.1063 9.93693 1.64396
Ar 43.5828 11.5681 1.18371
Ar 42.5962 11.9087 1.11070
Ar 46.7477 10.2640 2.49856
Ar 47.5801 9.60687 1.71159
Ar 46.3779 9.78379 1.07086
Ar 47.6970 9.21978 0.484034
Ar 45.7181 11.2255 1.28753
Ar 49.9699 10.1188 1.34103
Ar 50.9052 9.45236 1.31265
Ar 51.1076 11.2826 2.22811
Ar 50.2189 11.5010 2.76692
Ar 48.9487 10.0473 0.0543381
Ar 52.6593 9.13563 0.636380
Ar 54.6752 10.4417 1.67081
Ar 56.1969 9.12335 2.39752
Ar 55.3187 10.5759 2.67158
Ar 55.8563 11.6097 0.945528
Ar 57.5472 10.7829 0.755897
Ar 54.8859 9.23335 1.06693
Ar 58.6864 11.1287 0.844102
Ar 59.0111 9.73770 1.41343
Ar 60.6307 11.8153 2.85930
Ar 64.0864 10.5208 1.71279
Ar 4.66674 14.0683 1.50826
Ar 3.79301 12.2097 2.90966
Ar 4.55051 12.8498 0.111189
Ar 3.54909 14.9546 2.11901
Ar 7.02456 14.9014 1.52373
Ar 8.15983 14.4988 2.06594
Ar 7.65739 15.0012 0.394545
Ar 10.7219 13.1049 2.96806
Ar 11.7936 14.7658 2.89826
Ar 12.1128 14.9499 1.34448
Ar 17.4040 12.9878 0.529682
Ar 16.3209 12.9052 0.720055
Ar 16.4802 13.7656 0.397623
Ar 15.2181 12.8678 1.78593
Ar 17.3201 15.0280 0.312805
Ar 19.2688 12.4831 1.31666
Ar 18.8998 13.4875 1.79868
Ar 22.7799 12.9873 0.799972
Ar 22.8501 14.1947 1.97683
Ar 21.6139 13.1404 1.60725
Ar 21.8337 14.7350 1.79169
Ar 25.6861 14.5621 0.154231
Ar 26.3111 13.7268 0.952475
Ar 28.9598 13.4033 2.90320
Ar 27.5092 13.9299 0.713410
Ar 29.4722 14.7481 2.39738
Ar 30.5892 13.3217 2.13401
Ar 30.9280 15.1186 3.01508
Ar 33.5494 12.3664 1.86456
Ar 38.1759 14.2095 1.39055
Ar 38.3057 12.3625 1.19337
Ar 39.2550 13.9143 0.381956
Ar 38.0128 14.3951 2.80075
Ar 41.7590 14.1812 2.25326
Ar 40.9980 12.5191 2.43402
Ar 44.4175 14.2812 2.56114
Ar 44.5444 13.6752 0.318264
Ar 47.5606 13.4193 0.684069
Ar 46.4115 13.9892 0.983500
Ar 47.7923 14.4296 0.705977
Ar 46.4255 14.8456 1.37169
Ar 51.4371 12.6136 0.618043
Ar 48.4938 12.1870 2.61996
Ar 48.5095 13.6573 0.730178
Ar 53.6406 13.8458 2.06991
Ar 52.2967 12.6529 1.71868
Ar 52.0269 14.6383 2.58032
Ar 52.2328 14.9196 0.492966
Ar 56.9187 14.1446 0.818145
Ar 59.4079 13.1280 2.75551
Ar 59.5309 13.2766 0.750614
Ar 59.9978 14.7615 0.487252
Ar 58.7722 14.4945 2.37618
Ar 1.50045 15.7349 1.31639
Ar 0.583465 15.7613 0.700908
Ar 1.75261 16.1932 0.462211
Ar 1.36292 17.0667 2.52791
Ar 1.47631 17.7288 1.19315
Ar 5.00111 16.5306 0.695452
Ar 5.15166 17.6616 2.14089
Ar 5.92958 17.1256 2.01642
Ar 6.03531 15.4291 0.663240
Ar 8.67328 15.5406 0.578480
Ar 7.63140 16.7723 1.64382
Ar 8.08042 15.8014 2.81324
Ar 8.35078 16.0891 1.53158
Ar 11.4336 17.0313 0.983123
Ar 9.96492 15.6363 2.28440
Ar 11.2399 18.1805 0.242834
Ar 14.2570 16.0012 2.30567
Ar 12.4433 17.5292 2.89547
Ar 14.6648 16.5911 1.75397
Ar 13.1840 15.9782 2.64279
Ar 12.7166 17.1994 0.659862
Ar 14.5506 17.8328 0.811370
Ar 14.9002 15.3018 0.387898
Ar 13.7036 17.8808 1.53131
Ar 17.1633 15.2586 2.16068
Ar 16.4381 16.2498 0.184267
Ar 19.9539 17.5391 0.746464
Ar 18.4118 17.9613 2.70696
Ar 19.9967 18.1735 2.18297
Ar 23.6568 16.2813 0.147086
Ar 23.8648 17.7992 2.22753
Ar 22.4065 17.9271 2.79952
Ar 26.8362 15.2525 1.65115
Ar 24.8251 15.9885 0.955837
Ar 24.2956 16.3104 2.36092
Ar 25.8964 17.9193 0.976057
Ar 26.4601 15.7345 0.173318
Ar 26.9934 17.7739 1.60488
Ar 27.1953 15.9743 1.38589
Ar 24.2471 16.8819 0.180553
Ar 27.9667 16.7244 0.844815
Ar 27.4743 17.3642 0.181011
Ar 29.8545 16.3968 0.741253
Ar 30.6175 15.4026 2.04427
Ar 31.0466 17.2553 2.86796
Ar 30.8696 17.8438 1.77023
Ar 34.1444 16.2390 2.38535
Ar 36.1423 15.4001 0.486619
Ar 34.6811 15.2459 1.36518
Ar 37.4796 15.5207 1.75783
Ar 37.6114 18.1578 0.00213944
Ar 41.0568 15.9674 2.02829
Ar 41.6644 16.0176 0.0716996
Ar 40.1061 15.5777 2.73862
Ar 42.2206 16.8303 1.36897
Ar 40.4155 17.5148 0.304371
Ar 43.4893 15.9212 1.26787
Ar 44.5197 16.7716 1.43225
Ar 43.4627 17.5379 1.59940
Ar 42.4728 17.2929 2.66703
Ar 43.1901 17.3785 0.0783565
Ar 42.5654 15.5404 2.27810
Ar 45.0113 18.1372 0.0727813
Ar 47.3759 17.4827 2.59797
Ar 45.9254 17.5905 0.0575670
Ar 48.4632 16.0300 2.68877
Ar 47.0977 18.1744 1.81211
Ar 49.4689 17.3846 0.877560
Ar 49.1414 15.8382 0.198764
Ar 50.9152 15.8485 1.82004
Ar 49.6045 15.5864 1.22748
Ar 49.8322 17.8172 2.04073
Ar 50.1789 18.1630 1.29613
Ar 54.5266 15.4750 0.478674
Ar 51.8987 15.5413 1.56393
Ar 51.8802 16.8116 2.54037
Ar 55.2169 16.0670 3.02251
Ar 56.7897 16.4656 2.46022
Ar 56.5318 17.5918 2.78336
Ar 57.9330 17.4733 0.178276
Ar 59.2041 17.2867 2.98889
Ar 59.6068 15.7831 0.144732
Ar 57.7877 15.2582 2.31853
Ar 60.7697 17.4339 2.69579
Ar 0.973724 18.7257 1.18529
Ar 0.500608 20.0503 0.707004
Ar 1.89599 20.0441 0.361095
Ar 2.43589 19.7508 1.14147
Ar 4.28954 20.6899 1.42017
Ar 5.50478 18.7793 0.688693
Ar 5.61383 18.9585 2.56018
Ar 4.45462 19.1531 2.69794
Ar 4.35552 20.7996 0.184371
Ar 8.82255 19.8891 0.493618
Ar 8.59238 18.5376 1.18246
Ar 6.50772 19.2203 2.60753
Ar 8.60231 20.8978 2.59406
Ar 11.0103 20.0258 0.320762
Ar 10.0830 19.8636 2.11660
Ar 14.6178 20.2249 1.50185
Ar 12.4515 19.3440 0.784563
Ar 14.9450 21.0339 2.29533
Ar 15.9539 19.0375 0.270175
Ar 17.7757 19.4769 1.73597
Ar 17.8488 18.7841 1.12224
Ar 19.4065 18.7982 1.27451
Ar 19.1322 20.1438 1.28911
Ar 19.5854 20.5000 2.72207
Ar 22.1104 19.0356 2.64385
Ar 23.0374 19.6117 0.286489
Ar 26.5219 18.5058 0.656593
Ar 25.1881 20.3650 2.45931
Ar 25.6176 19.1932 0.236588
Ar 24.7894 19.3408 0.0345788
Ar 28.9665 19.5693 1.71413
Ar 28.8060 20.8101 1.44180
Ar 29.5690 18.8194 1.98232
Ar 27.9036 19.9802 2.80551
Ar 29.8682 18.7602 0.0359382
Ar 31.4475 19.0062 1.09447
Ar 33.0208 19.5537 2.95432
Ar 32.1627 18.9860 0.127602
Ar 31.3062 20.2038 2.47251
Ar 30.7480 20.4717 0.520306
Ar 32.5818 19.7314 1.86245
Ar 32.1819 19.9638 0.538403
Ar 30.5242 20.1041 2.73569
Ar 34.9961 18.4750 0.770709
Ar 34.2634 20.1067 0.940677
Ar 33.9365 20.6703 2.04313
Ar 35.7173 19.9993 0.108021
Ar 37.7745 18.5148 2.57788
Ar 38.9757 20.0496 0.0804209
Ar 39.1083 20.6982 2.02170
Ar 41.9459 20.5616 2.81843
Ar 42.1085 18.4502 1.07113
Ar 43.5384 18.7697 1.61545
Ar 43.9115 20.0776 0.643077
Ar 43.9386 20.3557 1.58064
Ar 45.2074 20.2742 1.74496
Ar 45.0775 20.8971 0.550520
Ar 48.0910 19.5158 2.11621
Ar 47.0431 19.8595 2.53367
Ar 48.0327 18.1918 1.21025
Ar 49.3324 18.2176 0.936368
Ar 50.6919 19.9466 2.40227
Ar 48.7237 21.0740 0.695836
Ar 52.0985 19.8268 2.15643
Ar 53.1798 19.2508 2.96037
Ar 54.2376 19.2789 1.47539
Ar 52.4153 20.7425 1.37352
Ar 53.8685 20.3661 1.91295
Ar 57.0839 20.2131 2.06174
Ar 57.3817 19.8415 0.414119
Ar 54.8917 20.6109 2.19679
Ar 58.8398 19.3431 1.78558
Ar 59.7924 20.2201 1.30238
Ar 58.7172 20.7386 2.48665
Ar 58.1337 20.7644 0.899839
Ar 61.8621 21.0368 2.19711
Ar 0.517112 23.8153 1.17389
Ar 1.95507 24.0726 2.67697
Ar 5.62825 22.3197 1.80029
Ar 4.99568 23.1516 1.27801
Ar 5.51515 22.5129 2.99966
Ar 4.17079 23.1834 0.254239
Ar 6.86036 21.4197 1.25649
Ar 8.28940 23.4863 1.27223
Ar 8.09239 22.3327 2.00533
Ar 7.55175 23.3730 0.787806
Ar 8.81824 23.2452 0.612114
Ar 6.90706 24.0390 1.59271
Ar 10.9786 22.3649 1.86190
Ar 11.3470 22.1050 0.171837
Ar 10.0089 22.9329 0.00305764
Ar 12.6940 21.4083 1.96366
Ar 14.2516 22.8621 1.62546
Ar 14.8888 21.3457 0.432564
Ar 15.6790 21.9340 0.756633
Ar 16.7523 21.5278 0.649003
Ar 16.8282 23.2251 2.61615
Ar 16.2973 23.9486 2.00012
Ar 18.0145 23.9086 1.22255
Ar 20.0679 21.5463 0.692014
Ar 19.3597 22.6822 0.949818
Ar 19.3257 21.2138 1.08230
Ar 19.4360 23.2126 2.43424
Ar 23.6333 21.6349 2.39154
Ar 21.5229 21.3079 1.74118
Ar 21.5270 22.2640 1.22773
Ar 23.4449 22.5546 2.45552
Ar 23.5024 23.4924 1.96520
Ar 22.8345 24.0804 0.417522
Ar 25.0867 22.1440 2.38339
Ar 25.6165 23.6112 2.34011
Ar 26.0788 21.6649 1.15693
Ar 24.3230 23.3890 0.888099
Ar 29.1981 23.0104 2.45800
Ar 28.6897 22.3769 1.59755
Ar 29.1178 23.3966 0.690155
Ar 30.4627 23.9243 1.06119
Ar 32.0500 22.3282 0.914804
Ar 31.5118 22.0157 2.84279
Ar 30.6052 21.3902 0.431466
Ar 33.2910 22.0653 1.85890
Ar 34.3723 22.8313 1.99674
Ar 34.5092 23.1409 1.04106
Ar 33.3911 21.6622 0.807665
Ar 34.9903 24.1705 1.51080
Ar 35.6010 21.3766 1.73218
Ar 36.1558 22.8291 0.342254
Ar 33.5351 22.6435 2.48510
Ar 33.5386 21.2355 2.52163
Ar 34.5697 21.9900 0.0938264
Ar 37.1753 21.2214 1.48462
Ar 38.7128 22.8164 2.22929
Ar 38.1300 21.8141 0.364240
Ar 39.1134 23.4368 2.74421
Ar 37.3642 24.0198 0.253536
Ar 41.0067 21.5412 2.19900
Ar 41.3661 21.3020 0.941151
Ar 42.1672 21.4479 2.62194
Ar 40.2777 23.6936 0.153341
Ar 40.9127 24.1983 1.91488
Ar 42.8042 21.4666 1.79484
Ar 44.0901 21.7539 0.304269
Ar 45.1253 22.4138 2.02156
Ar 43.9197 22.7943 1.51474
Ar 43.8789 22.0894 2.87427
Ar 46.4511 22.1406 0.580104
Ar 47.7371 22.9499 1.40866
Ar 46.7721 23.4092 2.15807
Ar 47.0818 23.4308 1.12578
Ar 46.6879 24.2249 0.472316
Ar 49.7996 21.7904 1.23991
Ar 48.5703 22.4886 1.15350
Ar 48.9017 23.3739 0.151486
Ar 49.8044 23.6653 0.180742
Ar 53.4521 22.5592 1.14957
Ar 54.0861 23.1890 2.30430
Ar 54.1673 22.5743 0.560974
Ar 52.3288 23.0827 2.54155
Ar 53.4123 23.3747 0.0791639
Ar 52.1422 24.2280 2.38335
Ar 55.3175 22.8546 0.317021
Ar 57.0147 22.8153 0.761202
Ar 55.2729 23.9729 0.593280
Ar 56.9689 23.5654 1.80797
Ar 56.5775 23.9613 0.378448
Ar 56.4644 21.9757 0.0628907
Ar 58.7700 22.3180 1.12208
Ar 58.9327 24.1501 1.61947
Ar 57.7456 23.6849 1.49564
Ar 1.14483 25.4439 0.957348
Ar 0.868544 25.4795 2.03166
Ar 0.510147 26.3265 2.45927
Ar 5.30052 25.0888 0.905720
Ar 4.17058 24.7129 2.45108
Ar 4.99093 24.8485 2.76748
Ar 5.06911 25.9329 2.11496
Ar 3.42893 24.3572 0.436607
Ar 3.21208 26.7734 0.828712
Ar 7.28841 26.2807 1.87989
Ar 7.26156 24.4003 2.26144
Ar 7.57728 26.3632 0.898427
Ar 8.62655 24.6699 1.53415
Ar 6.15862 26.0191 1.68020
Ar 8.37826 26.7796 2.03190
Ar 8.77745 26.2002 0.0933762
Ar 7.43129 24.7662 0.0364245
Ar 10.1535 25.8364 1.08945
Ar 9.63029 26.9884 1.07965
Ar 10.6930 26.6256 1.06870
Ar 11.9129 27.1795 1.79536
Ar 15.0547 24.3324 1.16172
Ar 12.1416 25.8448 0.239403
Ar 17.3679 25.1740 1.39262
Ar 16.7106 24.8078 1.92007
Ar 15.7438 26.9308 1.24193
Ar 20.3516 25.9743 0.655852
Ar 21.1295 25.8884 0.615851
Ar 21.8654 26.4943 0.697734
Ar 21.3603 26.2109 1.47947
Ar 26.3264 25.3579 1.64760
Ar 24.9675 24.4463 2.09522
Ar 27.2716 24.9830 1.74682
Ar 27.1973 27.0006 0.997685
Ar 25.5624 27.0371 0.0254557
Ar 26.4357 27.1860 1.86371
Ar 29.7634 24.4172 1.14726
Ar 28.0716 25.7402 1.55718
Ar 28.8655 26.6708 1.98795
Ar 27.7258 26.7637 3.02751
Ar 28.8922 27.2414 2.71182
Ar 29.0081 26.7692 0.00522460
Ar 32.5382 26.3733 0.0965682
Ar 32.8308 26.6405 1.32660
Ar 33.7348 24.7396 2.07864
Ar 34.2658 26.4443 2.87122
Ar 33.8727 26.0963 0.627540
Ar 36.1546 25.5207 0.693276
Ar 37.1755 25.9573 2.76918
Ar 39.0786 24.4856 2.48401
Ar 36.7403 25.7148 1.87862
Ar 38.6577 25.3005 0.565803
Ar 39.1014 26.7920 1.29988
Ar 40.8168 26.7489 0.871626
Ar 42.3084 26.0576 1.27649
Ar 41.3088 26.7511 1.85644
Ar 43.4175 25.2368 1.78277
Ar 42.4740 25.4726 0.117736
Ar 46.5715 24.8709 2.68756
Ar 47.3292 25.3239 2.10048
Ar 47.7755 25.5490 0.273145
Ar 50.0084 24.3164 2.64771
Ar 49.4216 25.3292 2.61829
Ar 49.1464 24.8106 1.59779
Ar 49.4776 25.0665 0.622572
Ar 51.1027 24.2443 0.950102
Ar 50.4930 24.7262 0.448476
Ar 50.0281 26.1601 2.13757
Ar 51.4482 25.2012 2.97580
Ar 50.1246 26.9207 0.185077
Ar 52.6166 25.0532 1.02278
Ar 54.4814 24.6817 2.30569
Ar 51.9707 24.2978 0.890147
Ar 54.3241 26.5953 0.526042
Ar 54.2347 25.5698 1.25159
Ar 51.6462 25.2962 1.58680
Ar 54.4466 26.7783 1.72555
Ar 51.9889 26.0358 0.0188635
Ar 55.2150 26.2493 0.935346
Ar 56.2395 25.0875 1.82905
Ar 58.9755 24.6399 2.56732
Ar 58.1236 25.5221 2.12867
Ar 59.2101 27.0321 2.51034
Ar 60.7347 26.3700 0.174967
Ar 0.486440 29.6911 1.19159
Ar 2.76675 27.4349 0.244672
Ar 5.00334 27.3967 2.41596
Ar 4.72554 27.3292 0.964580
Ar 5.70706 28.9073 2.21211
Ar 3.71409 29.6582 1.76554
Ar 5.08885 29.9182 0.755163
Ar 3.52760 27.2992 2.41874
Ar 7.89492 29.4020 1.81202
Ar 7.73482 27.7131 0.914022
Ar 6.13535 27.3775 1.87085
Ar 8.62711 27.6045 0.487511
Ar 8.02046 28.3818 1.89011
Ar 8.39590 29.6143 0.438479
Ar 8.11754 28.8225 3.01498
Ar 6.65445 28.6791 1.90819
Ar 9.02828 30.0500 1.34828
Ar 9.02102 27.9027 2.04239
Ar 12.0263 28.4868 0.910824
Ar 10.1811 28.8830 0.474634
Ar 11.5532 29.4154 1.03181
Ar 9.79992 29.3480 2.13648
Ar 14.6377 29.4006 2.47117
Ar 14.8407 28.5632 2.25585
Ar 13.6862 29.1048 1.05135
Ar 12.6178 27.5660 0.908170
Ar 13.9960 28.1136 1.92821
Ar 12.4464 29.0812 2.18642
Ar 14.5211 29.9694 0.175747
Ar 12.8191 29.9226 2.27646
Ar 16.0546 27.9336 1.54342
Ar 16.7156 28.4077 2.40560
Ar 15.9624 28.7138 1.18431
Ar 17.2941 29.0177 0.505561
Ar 15.4323 28.1463 0.137237
Ar 15.8265 29.6430 0.136704
Ar 20.5214 27.7066 2.67963
Ar 19.6714 29.6372 1.62012
Ar 23.4985 28.2141 2.15507
Ar 21.9058 27.5684 1.80955
Ar 23.4382 30.0692 0.219384
Ar 27.0490 29.4160 2.04086
Ar 24.9861 29.5003 2.23526
Ar 29.1018 27.6107 1.54065
Ar 29.0558 29.8439 0.318108
Ar 27.3472 28.9568 0.688759
Ar 28.6539 29.1894 2.23884
Ar 27.7832 29.3631 1.98368
Ar 28.0551 27.2802 0.467262
Ar 30.0449 30.2470 0.742792
Ar 31.1611 27.5962 1.38444
Ar 33.0464 27.4550 0.125607
Ar 35.0726 27.4459 1.90213
Ar 38.3871 28.8747 2.12141
Ar 38.0457 29.1490 0.478383
Ar 38.3852 27.4203 2.64433
Ar 38.7800 29.5551 2.54780
Ar 38.6208 29.2316 1.09225
Ar 37.2357 29.7116 2.66362
Ar 37.6857 29.8225 0.772721
Ar 36.6731 29.4793 0.284613
Ar 39.1106 28.8976 0.145230
Ar 40.8355 28.7789 0.976314
Ar 40.8235 28.3765 2.43234
Ar 40.9631 29.7394 0.517823
Ar 42.2037 29.7412 0.864513
Ar 42.9827 28.6018 1.26871
Ar 42.9969 29.4211 0.261910
Ar 43.0797 29.5358 1.71517
Ar 43.7651 29.8200 0.0823935
Ar 45.4116 29.4357 2.06441
Ar 42.7755 27.4686 2.40326
Ar 46.5010 28.6139 0.908997
Ar 46.9043 29.9366 1.78479
Ar 50.0124 29.9690 0.689523
Ar 50.7856 28.9214 0.494438
Ar 51.2552 27.8492 1.01516
Ar 48.7044 28.6856 1.59847
Ar 51.8840 29.4348 2.74616
Ar 53.1118 30.1336 1.55342
Ar 57.2841 29.9321 1.27209
Ar 54.8199 29.6009 0.915589
Ar 54.7521 28.3332 1.36559
Ar 59.6741 29.5104 2.81342
Ar 60.0837 28.3038 0.351774
Ar 58.3832 29.9289 0.556937
Ar 0.972429 30.5026 1.06932
Ar 2.96223 32.1216 2.76677
Ar 0.118683 32.2957 1.36932
Ar 5.23130 30.6970 1.73688
Ar 4.08816 31.2038 1.59866
Ar 5.58684 32.4160 0.640860
Ar 4.27563 32.9281 1.61427
Ar 8.46281 31.9999 2.99259
Ar 6.78384 30.8360 1.27090
Ar 8.27981 32.2768 2.10541
Ar 8.65348 32.6548 0.241009
Ar 7.17317 32.9686 0.354281
Ar 10.5412 31.9458 2.13592
Ar 10.6639 31.8587 0.196251
Ar 9.61876 30.6759 0.236351
Ar 12.1427 31.3978 1.72780
Ar 15.1402 30.8030 2.52037
Ar 16.4519 32.1314 0.609625
Ar 16.6705 33.0299 2.27991
Ar 17.7435 32.4909 1.69533
Ar 20.8594 31.0675 2.21491
Ar 18.2838 31.7212 2.31181
Ar 23.8111 31.4526 2.26985
Ar 21.5558 30.6357 1.55810
Ar 23.7570 32.8342 1.14870
Ar 22.1274 32.4784 1.73353
Ar 24.4336 30.8945 1.15491
Ar 26.8386 32.0464 2.77237
Ar 25.8352 32.8376 1.46778
Ar 24.8863 33.3120 2.71664
Ar 27.8307 32.8950 2.47603
Ar 29.1713 31.2927 0.173421
Ar 27.7355 31.7039 2.14804
Ar 31.3600 32.1149 0.704272
Ar 31.6653 31.1667 0.682743
Ar 31.0685 31.4062 1.40125
Ar 30.6929 30.8272 1.74575
Ar 32.1087 33.1607 0.834252
Ar 34.8275 30.6848 2.19073
Ar 34.9763 30.9299 0.850372
Ar 37.4866 31.1183 0.635716
Ar 37.3727 33.0459 2.97150
Ar 39.4426 32.4665 0.0255090
Ar 41.8953 30.8333 2.16707
Ar 41.1329 31.0523 2.96296
Ar 40.3887 30.9399 1.45603
Ar 41.8939 32.2464 0.436401
Ar 42.4273 30.3603 0.0192352
Ar 46.9566 31.5978 2.63295
Ar 48.3960 32.6053 1.27170
Ar 48.0824 32.0452 2.74275
Ar 45.7335 30.4175 0.0634137
Ar 47.2190 33.3259 0.0873869
Ar 50.2746 30.6855 1.18455
Ar 49.4339 31.8805 0.558029
Ar 50.8505 33.0311 0.929442
Ar 53.7668 31.0379 1.13551
Ar 53.0974 32.1542 1.85802
Ar 51.9086 32.5210 0.664100
Ar 56.0197 31.6896 1.43720
Ar 54.5700 31.7723 0.701582
Ar 56.4969 33.3060 2.33681
Ar 60.2117 30.4931 1.84696
Ar 57.7861 33.1539 1.69925
Ar 57.9729 31.9992 0.511968
Ar 2.93811 34.2232 0.425169
Ar 5.65597 35.2628 2.59053
Ar 8.20847 33.9444 1.35341
Ar 6.18031 33.4893 0.144868
Ar 12.0801 34.5155 0.0594783
Ar 12.9064 33.7078 0.733222
Ar 12.8654 36.0858 1.26356
Ar 17.9117 33.7673 1.18233
Ar 15.8257 34.7056 1.09275
Ar 16.1981 33.4870 0.223180
Ar 17.9842 35.9997 0.0811505
Ar 20.4236 36.2188 0.809777
Ar 21.2525 35.6243 1.61493
Ar 26.2389 34.7292 0.667438
Ar 28.8320 35.3473 1.97012
Ar 31.1563 33.6610 1.35089
Ar 32.5986 35.3131 2.08438
Ar 30.4069 34.5464 2.98591
Ar 37.2593 34.5709 2.52476
Ar 40.4503 33.7726 2.36175
Ar 44.5874 35.2788 0.434615
Ar 45.3977 35.4249 2.56551
Ar 49.4762 34.0244 2.34105
Ar 53.8659 33.6651 0.775657
Ar 52.5435 34.8863 0.480892
Ar 57.7910 34.6642 0.297078
Ar 0.620464 36.6083 0.0996132
Ar 11.4934 37.1087 1.04826
Ar 23.8646 36.5522 2.42162
Ar 24.2022 36.5632 0.390940
Ar 33.9882 38.2789 0.400083
Ar 36.4843 36.7561 1.03790
Ar 41.2364 37.9380 1.87569
Ar 58.6964 37.1066 0.954361
Ar 2.79402 0.994544 5.63776
Ar 5.17664 2.84136 5.87993
Ar 5.12261 0.117267 3.91205
Ar 5.80359 1.44336 5.90895
Ar 3.31273 1.22363 4.16028
Ar 7.24760 1.60866 3.55575
Ar 8.16840 1.14983 3.89059
Ar 6.06803 1.69789 4.87738
Ar 12.5129 0.195124 4.10254
Ar 14.4690 1.33030 3.58531
Ar 12.7950 2.61855 3.87062
Ar 15.2202 1.65149 5.70423
Ar 15.4977 2.08369 3.65724
Ar 20.4325 2.72969 4.24790
Ar 23.3419 1.31718 5.08551
Ar 21.9575 1.36652 4.17915
Ar 26.6596 2.74244 5.34145
Ar 25.6866 2.29413 5.35842
Ar 25.4806 0.688901 3.15102
Ar 26.5081 0.0489532 4.40388
Ar 29.1817 1.06254 5.37851
Ar 28.7149 0.536196 3.77138
Ar 33.6737 0.408626 5.55884
Ar 33.6628 2.51421 3.72962
Ar 34.6634 2.98581 3.28631
Ar 39.0097 1.19146 3.86722
Ar 38.5014 2.23252 4.82012
Ar 36.9747 1.54839 5.16013
Ar 36.6533 1.50249 3.72979
Ar 40.1940 1.75388 4.65743
Ar 40.5703 2.29318 3.46767
Ar 41.9684 2.91574 5.29747
Ar 42.5767 2.35191 5.46024
Ar 44.4823 0.128292 4.82830
Ar 42.5777 1.09376 4.15223
Ar 47.1209 1.11430 5.51471
Ar 45.5301 0.853194 4.02125
Ar 46.3160 0.938000 3.60803
Ar 50.7264 1.16202 5.39424
Ar 52.2472 0.536472 3.74978
Ar 55.1541 1.71998 3.66715
Ar 55.1186 2.49853 4.13882
Ar 57.1878 1.21977 3.38913
Ar 56.0890 1.64522 3.35397
Ar 59.4387 1.03203 5.68803
Ar 59.6953 1.43719 3.60162
Ar 62.5625 1.74328 5.32831
Ar 2.39311 3.19298 5.22643
Ar 1.98855 4.95132 4.84694
Ar 1.76698 5.82523 3.43606
Ar 2.30644 5.92965 5.02396
Ar 3.13385 4.23941 3.19204
Ar 7.58144 4.84599 5.93828
Ar 6.08678 3.26636 4.30370
Ar 8.27712 3.80232 4.13990
Ar 8.15897 5.75026 4.24168
Ar 11.7688 3.03781 4.46064
Ar 11.4726 4.87270 5.40350
Ar 9.81473 5.44256 5.81047
Ar 11.9966 3.77372 3.14740
Ar 14.5441 5.06180 4.36023
Ar 17.6170 4.57236 4.16932
Ar 19.0390 3.69655 3.99336
Ar 21.1196 3.37297 4.93687
Ar 20.1435 5.42501 5.20149
Ar 23.4407 3.55041 5.45841
Ar 23.3438 5.53315 3.69629
Ar 24.8893 4.50948 4.50004
Ar 24.6169 3.71511 4.00820
Ar 25.8264 5.34720 4.07865
Ar 26.6978 3.97796 3.18457
Ar 28.9401 4.58256 4.19600
Ar 27.9673 3.67160 3.25886
Ar 31.1858 3.67352 5.70283
Ar 30.7582 4.75356 4.19584
Ar 35.8044 3.08430 4.93252
Ar 33.7155 4.07714 4.03238
Ar 37.1518 4.57504 5.97562
Ar 39.1037 3.64783 5.95612
Ar 37.4596 3.50675 4.44480
Ar 38.4297 3.13266 3.16182
Ar 40.7255 5.85855 3.87463
Ar 43.3683 5.30751 4.75732
Ar 42.5285 5.35806 5.98142
Ar 42.6038 5.99955 3.60138
Ar 47.2488 5.55411 5.77664
Ar 46.8235 3.11610 3.36152
Ar 49.9184 4.61262 5.84896
Ar 49.8783 6.01635 3.36881
Ar 57.4517 3.89336 3.68916
Ar 54.7547 4.42373 3.90301
Ar 58.2964 4.72372 3.55808
Ar 61.8097 5.24847 4.71543
Ar 2.72302 8.01503 5.98188
Ar 0.210691 8.31661 4.40364
Ar 5.29390 8.61693 3.57742
Ar 6.71152 7.55949 4.06117
Ar 8.25461 8.30809 5.67011
Ar 7.03235 8.71588 5.80523
Ar 7.17823 6.31976 3.50422
Ar 7.19920 8.81925 4.77047
Ar 8.71809 6.88730 3.09226
Ar 12.4758 6.61136 3.30524
Ar 17.6382 6.14671 4.65649
Ar 19.1870 7.85595 3.74461
Ar 23.5143 7.09077 5.33193
Ar 22.2726 8.01690 5.54646
Ar 23.4304 8.87176 4.52829
Ar 26.0056 7.60865 3.73992
Ar 24.7466 6.26635 3.60839
Ar 29.4526 6.47932 3.59449
Ar 33.2835 8.95530 6.01172
Ar 36.2289 7.69848 4.49070
Ar 34.5574 7.73722 3.85551
Ar 38.2273 7.93664 4.27353
Ar 36.9969 7.30831 5.57687
Ar 38.2741 8.95347 5.20263
Ar 41.1409 8.50620 3.33811
Ar 39.6103 9.05612 5.60518
Ar 44.6159 7.67050 4.75298
Ar 43.4290 7.74284 3.58691
Ar 47.4331 8.41782 6.02880
Ar 51.0073 6.75167 4.91519
Ar 48.8839 8.38680 5.48556
Ar 49.7825 7.69344 3.16416
Ar 52.3128 7.22127 4.95473
Ar 54.0383 7.95082 3.86995
Ar 51.9792 7.40238 3.79969
Ar 51.7420 8.22916 3.38747
Ar 54.4535 8.96105 4.42888
Ar 55.8014 8.07133 3.54136
Ar 1.76507 9.19229 4.75982
Ar 3.49595 10.1441 3.44602
Ar 6.54434 10.7803 3.55757
Ar 8.57513 10.0312 4.36522
Ar 8.75047 11.4981 3.24395
Ar 7.75027 12.0777 5.39551
Ar 10.7293 10.0160 3.26154
Ar 11.7404 9.52857 3.66631
Ar 12.7195 9.75748 5.33603
Ar 13.2614 10.7407 3.77178
Ar 14.6264 9.77532 3.57839
Ar 16.1022 10.5072 4.75314
Ar 23.1756 9.89997 3.80111
Ar 21.5545 11.6807 5.10249
Ar 26.7376 9.53268 4.33165
Ar 28.5149 10.5867 5.51530
Ar 28.7894 11.2787 4.29368
Ar 27.5891 11.6788 3.78168
Ar 28.3197 10.6063 3.20729
Ar 32.8956 11.2460 4.16717
Ar 33.3323 11.8849 4.57852
Ar 34.9401 11.6522 4.28968
Ar 35.4672 10.6037 4.03988
Ar 35.6739 11.9083 3.89063
Ar 38.9831 9.52460 3.81615
Ar 39.7239 9.75482 3.37681
Ar 43.8357 9.42048 5.16059
Ar 44.0119 11.5389 3.23074
Ar 43.5191 9.91872 3.20637
Ar 42.5279 10.4966 3.07463
Ar 45.8005 11.4685 5.09073
Ar 45.9800 11.2418 3.79404
Ar 45.6670 9.22454 5.77863
Ar 49.5782 12.0620 4.49017
Ar 53.2869 10.4325 3.30412
Ar 51.5616 9.96074 3.44259
Ar 55.3569 9.73538 4.50387
Ar 56.7014 10.7504 3.78708
Ar 57.7283 9.94551 3.81722
Ar 59.9835 12.0653 5.02203
Ar 59.3368 9.29037 3.03680
Ar 1.78916 13.2073 5.10881
Ar 1.04204 14.2696 4.01129
Ar 2.67796 13.2841 5.39206
Ar 4.30394 13.4234 5.74703
Ar 11.1934 14.9712 4.11986
Ar 14.4086 14.2979 5.48580
Ar 13.6572 14.4796 4.97990
Ar 13.0721 14.2853 3.62948
Ar 14.2384 13.3026 3.45223
Ar 16.9343 12.1997 5.33340
Ar 19.5631 12.8805 3.72969
Ar 19.9128 14.6414 3.62365
Ar 22.5827 14.6349 4.81304
Ar 21.9520 13.7144 5.57721
Ar 23.9122 12.5958 3.31401
Ar 22.5153 13.3303 4.93809
Ar 21.8547 15.0666 3.28968
Ar 22.3598 13.5810 3.15565
Ar 26.8612 12.3557 4.45312
Ar 28.1305 12.9676 3.66000
Ar 29.4903 12.6464 3.55185
Ar 31.3319 14.3907 5.91953
Ar 34.1619 13.2685 5.69772
Ar 35.2733 14.0638 4.78935
Ar 37.7590 14.7035 5.58045
Ar 38.9772 12.4925 4.81812
Ar 44.4865 14.5759 5.75822
Ar 42.6862 13.6706 4.49394
Ar 43.3063 12.5192 5.64196
Ar 44.6767 13.8542 4.09834
Ar 45.4355 14.1271 4.54353
Ar 47.1103 14.4751 3.71490
Ar 50.5915 13.7057 5.13708
Ar 49.1940 12.9610 4.69724
Ar 53.1331 14.9896 3.15672
Ar 52.7628 13.2726 3.11352
Ar 56.8824 12.5991 4.98457
Ar 56.9331 13.6826 3.78367
Ar 60.2360 15.0722 3.56426
Ar 62.1259 14.8138 4.95127
Ar 0.940313 16.2353 5.24486
Ar 0.373021 18.1052 4.11021
Ar 2.26240 17.1116 4.80236
Ar 0.290232 15.4158 4.92106
Ar 3.87099 16.9813 4.37314
Ar 4.31679 15.9478 3.11598
Ar 8.81992 16.8867 4.00590
Ar 6.98859 17.3190 3.78561
Ar 7.86692 17.9430 5.47578
Ar 13.0589 17.8534 4.98579
Ar 14.6643 16.3011 4.39799
Ar 13.3278 17.2499 3.18354
Ar 12.1721 17.7500 4.62016
Ar 14.1606 15.5418 3.07574
Ar 20.8336 15.7664 5.14803
Ar 19.3558 15.2009 4.47648
Ar 23.6572 17.2574 3.11021
Ar 25.2549 16.2833 5.74309
Ar 24.2823 16.7849 4.66512
Ar 27.9164 16.6060 4.36060
Ar 30.0167 15.2291 4.17827
Ar 29.9940 15.3237 3.23077
Ar 31.7051 16.9108 3.72996
Ar 33.9814 18.1083 4.07312
Ar 38.6352 17.3572 4.33847
Ar 36.5557 16.1170 3.12853
Ar 40.5463 17.1978 3.71701
Ar 44.3623 17.6191 3.87203
Ar 42.7476 17.6073 4.94905
Ar 47.2264 16.5862 3.98628
Ar 46.6241 15.4966 3.31958
Ar 53.8387 15.7406 4.73685
Ar 54.3727 17.7816 3.22604
Ar 52.1969 17.8312 3.93295
Ar 59.4148 17.5597 4.30541
Ar 60.9331 15.8391 3.40012
Ar 0.497743 18.5745 3.30149
Ar 2.22515 19.4078 3.79349
Ar 3.61732 18.3007 3.93021
Ar 5.09228 21.0502 3.05367
Ar 6.62972 20.7636 3.59701
Ar 11.1237 20.7577 3.44617
Ar 14.1133 19.4000 5.55363
Ar 17.1533 18.3514 3.82946
Ar 17.2660 20.0485 3.49582
Ar 17.0368 20.5429 4.50023
Ar 15.6764 21.1079 3.21185
Ar 19.6839 18.7833 3.67906
Ar 20.5652 20.3224 3.39176
Ar 23.7403 19.5260 4.31435
Ar 21.4451 18.6398 5.09878
Ar 23.1899 19.0383 3.34900
Ar 22.3590 21.1424 3.26148
Ar 25.6827 18.2266 3.75336
Ar 24.4451 20.3787 3.95290
Ar 29.8343 18.3103 3.76521
Ar 27.5023 20.0311 4.16567
Ar 28.0187 18.1928 3.41952
Ar 32.5534 19.3100 5.91999
Ar 30.8122 18.2963 4.96557
Ar 32.4422 18.7639 3.83344
Ar 31.1302 20.2094 3.78796
Ar 35.1044 18.5806 3.43638
Ar 37.4815 19.6641 3.79573
Ar 39.3662 20.1514 3.38682
Ar 36.8349 20.5462 3.18766
Ar 40.7439 19.5854 4.49395
Ar 44.9461 20.3218 4.29345
Ar 47.3704 19.1754 5.85348
Ar 50.3462 19.0280 5.42337
Ar 49.3338 18.5423 4.41541
Ar 48.6162 18.8907 4.51929
Ar 54.4634 19.1678 3.04851
Ar 58.2288 20.3784 3.92886
Ar 61.7591 19.9775 4.78792
Ar 3.04306 22.6265 4.09944
Ar 5.89838 23.5234 3.78395
Ar 6.54022 23.0019 3.90871
Ar 7.27294 24.0234 3.22056
Ar 10.2031 22.8619 3.86017
Ar 11.8377 23.6054 3.50593
Ar 12.0655 22.5038 3.06631
Ar 17.1483 22.4311 3.87950
Ar 15.6308 23.4567 3.55468
Ar 16.6284 24.1146 3.50770
Ar 19.6768 23.2209 4.20600
Ar 18.9205 21.4778 3.38616
Ar 23.7679 21.6155 3.33134
Ar 24.6022 21.4012 4.27046
Ar 26.7121 21.3411 3.99634
Ar 26.0191 22.4621 4.37380
Ar 26.8398 22.0289 3.18671
Ar 24.7521 23.9712 3.98786
Ar 28.2946 21.2326 5.36312
Ar 28.5883 21.9581 3.89287
Ar 28.4256 22.7084 3.45348
Ar 31.7487 22.2153 4.12624
Ar 31.1140 23.4925 3.34778
Ar 30.4861 23.4576 4.81906
Ar 35.1609 22.2682 4.23641
Ar 36.4715 22.7094 5.67990
Ar 36.7426 23.7086 4.12155
Ar 37.3147 23.6227 3.07930
Ar 43.3258 23.3765 4.32894
Ar 47.8721 23.3122 3.08819
Ar 49.6266 22.5225 5.63048
Ar 48.6864 23.6759 3.39681
Ar 48.8732 21.9399 3.14341
Ar 50.2809 23.2470 3.17664
Ar 53.9229 21.5614 4.67965
Ar 54.2371 23.2147 3.72837
Ar 51.8310 21.3175 3.59942
Ar 54.1205 21.4804 3.23160
Ar 58.6907 21.6275 4.91390
Ar 57.5965 23.7284 3.21598
Ar 3.76755 25.2490 4.39062
Ar 3.09207 26.1706 3.29932
Ar 5.94406 25.2562 3.18854
Ar 9.06456 24.3659 4.03889
Ar 6.91469 27.2306 4.69775
Ar 12.0364 26.4302 4.26503
Ar 13.9152 24.5432 5.43569
Ar 15.1204 26.4541 4.15993
Ar 16.4792 25.3767 4.11600
Ar 20.0388 26.5466 3.38316
Ar 21.6391 26.2217 5.17062
Ar 22.5734 26.9695 3.17526
Ar 21.2383 24.8893 3.05495
Ar 24.7840 25.0069 4.64935
Ar 25.5374 26.2679 4.35334
Ar 27.7576 25.1966 3.95560
Ar 29.3636 25.7845 5.50488
Ar 32.2181 25.0482 5.52742
Ar 32.5552 26.5130 5.64465
Ar 30.9868 26.4714 5.01241
Ar 32.0453 25.7526 3.87334
Ar 32.8697 26.0341 3.89737
Ar 34.1833 24.5394 4.19007
Ar 37.5083 24.6672 4.63440
Ar 40.2849 26.8709 3.58464
Ar 47.3926 24.6679 5.80196
Ar 45.7666 25.9040 5.29642
Ar 48.2084 24.4168 4.91465
Ar 45.7864 25.2833 4.33297
Ar 48.3522 26.6336 3.56291
Ar 49.4900 24.7751 3.69612
Ar 53.1059 26.5021 4.18254
Ar 55.9812 25.9622 3.06183
Ar 59.2338 24.9142 4.21361
Ar 1.53632 29.2873 3.28486
Ar 3.93623 30.2028 3.88283
Ar 9.77320 28.7327 4.21728
Ar 15.1358 29.9589 3.64936
Ar 18.0884 29.3747 3.50499
Ar 20.0121 29.3269 3.05743
Ar 22.4989 27.6327 4.17997
Ar 23.4977 28.2374 4.04917
Ar 25.4633 28.3146 5.03095
Ar 24.3595 28.6610 3.36899
Ar 24.5174 27.5894 3.61430
Ar 27.3464 28.2782 4.42431
Ar 27.9802 27.5270 3.71380
Ar 27.8506 30.1338 4.36527
Ar 32.5242 28.4553 4.68377
Ar 30.4386 28.4767 4.49735
Ar 31.5786 28.5137 3.16208
Ar 34.5031 27.3406 4.80365
Ar 33.9282 28.5342 5.34368
Ar 39.2857 27.9263 5.72712
Ar 37.1091 29.5113 4.88862
Ar 41.7325 27.9772 5.45555
Ar 40.6476 28.5317 3.50294
Ar 40.3334 30.2059 3.96299
Ar 42.9123 28.4994 4.20395
Ar 43.7773 28.6558 3.68762
Ar 48.1538 29.4801 3.82029
Ar 46.9596 29.6635 4.85687
Ar 45.8224 29.2382 3.46895
Ar 46.0246 30.1356 3.55827
Ar 51.3825 28.7941 3.34429
Ar 56.1781 29.1253 5.00797
Ar 57.3769 27.4105 3.12535
Ar 4.63214 32.0181 5.14614
Ar 5.46285 32.9850 3.67569
Ar 4.81188 31.3662 3.27142
Ar 4.98296 32.8535 4.40946
Ar 9.70075 31.7842 5.83684
Ar 9.44150 30.6784 4.29552
Ar 14.3906 31.2358 5.42918
Ar 14.0241 32.0853 3.90579
Ar 15.1406 30.9060 4.66149
Ar 29.5320 32.1057 3.06286
Ar 27.2769 32.5437 3.64151
Ar 31.0480 31.2307 4.78255
Ar 33.4139 30.8045 3.30480
Ar 37.9589 30.9218 3.70585
Ar 40.5386 31.3737 5.16476
Ar 39.8993 33.1738 4.45765
Ar 40.4181 32.2656 3.12730
Ar 44.4396 30.5988 4.47793
Ar 42.8993 30.3786 3.77485
Ar 46.8246 31.2107 4.02021
Ar 49.1272 31.6887 3.98807
Ar 49.6845 31.0335 4.08119
Ar 53.8844 31.7265 4.28912
Ar 52.0719 30.6281 3.55690
Ar 55.8380 33.0694 4.38952
Ar 57.5015 30.3447 4.16406
Ar 57.8716 31.3598 5.36094
Ar 58.0698 31.6739 3.61158
Ar 59.8165 31.7900 3.53905
Ar 2.77667 33.4013 4.03564
Ar 8.19215 34.7598 3.45044
Ar 16.9696 34.4193 5.14537
Ar 28.2041 33.7388 3.73573
Ar 32.1170 34.2640 5.24334
Ar 38.7362 34.5840 4.92441
Ar 48.3912 34.7997 4.33541
Ar 48.0615 33.6981 3.95101
Ar 4.11996 37.0320 3.50594
Ar 21.3587 38.4831 4.13045
Ar 2.07702 0.831712 6.74916
Ar 6.92667 0.627848 6.64627
Ar 11.7912 1.48956 8.07132
Ar 16.9453 2.57821 6.13016
Ar 19.1348 1.66627 6.12341
Ar 23.7867 2.90829 6.29440
Ar 26.1521 2.36766 6.28838
Ar 47.6901 2.72825 6.61370
Ar 54.1002 2.14006 7.76689
Ar 58.1665 0.123264 7.29371
Ar 58.3755 1.79741 6.08830
Ar 1.86203 4.15553 6.80170
Ar 6.28131 4.05382 6.89650
Ar 12.1516 3.06875 6.44446
Ar 13.1571 4.58813 6.57145
Ar 16.8665 5.70619 6.35945
Ar 20.3800 3.86106 6.96729
Ar 19.4148 4.47395 6.42718
Ar 25.6875 3.22281 8.38561
Ar 24.5860 3.75078 6.77196
Ar 27.9266 3.84043 8.00303
Ar 33.1484 5.02642 7.57101
Ar 30.8145 5.28567 6.27909
Ar 35.5877 3.64747 6.21232
Ar 40.0598 5.31653 7.11358
Ar 40.5974 3.81536 6.63302
Ar 44.4988 3.59443 8.85075
Ar 52.8953 4.58128 9.06359
Ar 55.6908 4.57388 6.41311
Ar 54.5596 3.91441 8.92524
Ar 6.19490 8.39887 6.46232
Ar 11.5172 6.30382 6.55003
Ar 14.4571 7.47788 8.78634
Ar 16.7414 8.02125 7.17216
Ar 16.2540 9.08607 7.41644
Ar 19.4333 8.46946 8.24371
Ar 28.2203 8.39415 6.58095
Ar 31.7340 8.05480 7.30485
Ar 35.1897 8.33356 6.16226
Ar 36.8789 7.14311 8.64708
Ar 38.8213 8.95023 6.64545
Ar 41.9928 6.21806 8.41740
Ar 48.2664 7.94996 7.53607
Ar 50.7134 8.41767 8.08389
Ar 57.5972 6.57193 6.50009
Ar 2.61963 11.6024 6.15857
Ar 4.29469 11.4231 7.00614
Ar 8.43681 10.6191 6.54048
Ar 9.61854 10.5771 6.32952
Ar 14.9727 10.7136 7.80795
Ar 13.2889 9.59438 7.79415
Ar 22.7353 11.2581 8.30139
Ar 24.1916 9.68617 6.29197
Ar 27.7223 11.4546 7.67601
Ar 37.8268 10.5255 6.14208
Ar 42.3389 9.21494 6.17760
Ar 47.6219 11.2733 7.64788
Ar 50.6619 10.4167 6.87107
Ar 58.2807 10.4523 7.98339
Ar 59.9442 11.7657 7.06380
Ar 2.29920 14.5767 7.98792
Ar 3.76888 13.7920 7.66109
Ar 19.3001 14.2530 8.88417
Ar 23.9001 14.6646 6.39414
Ar 28.6402 12.1639 6.39248
Ar 31.0723 12.3551 6.34443
Ar 35.8400 12.5401 6.44486
Ar 38.1488 13.4166 7.45560
Ar 39.3426 13.8511 6.86735
Ar 38.8129 12.6698 6.08460
Ar 48.4846 14.6482 6.51923
Ar 49.5362 14.6156 6.63940
Ar 51.1356 14.1521 6.10642
Ar 56.2613 14.4305 7.18904
Ar 63.5792 13.3415 7.67720
Ar 6.91933 17.3671 6.43908
Ar 27.0103 16.8618 6.87771
Ar 28.4179 15.9935 6.76146
Ar 36.6006 15.3808 7.53477
Ar 38.2353 15.3461 6.36089
Ar 43.4365 15.9097 7.12066
Ar 50.2515 15.8067 7.99538
Ar 54.7551 19.0556 6.32142
Ar 2.20391 23.9806 6.33998
Ar 5.77601 23.0474 6.71369
Ar 6.43164 22.6340 6.44147
Ar 35.8757 23.6160 6.14136
Ar 48.2468 22.3532 6.77035
Ar 8.49616 25.3614 7.54977
Ar 13.6620 25.6411 6.52608
Ar 14.7916 27.2369 7.13550
Ar 34.3945 26.9814 6.49231
Ar 38.6585 26.7880 7.00775
Ar 47.2001 26.8287 6.78281
Ar 2.59911 27.3667 6.36305
Ar 46.0464 27.3002 7.57083
Ar 47.5596 29.1518 6.40751
Ar 57.0447 28.1839 7.06521
Ar 59.8765 29.5591 6.34012
Ar 49.8908 0.900997 11.4253
Ar 49.1423 3.56796 10.1421
Ar 22.7549 8.12592 10.4646
Ar 26.2746 11.5780 9.15937
Ar 58.5687 9.44097 10.1232
Ar 14.7944 13.1415 11.3411
Ar 34.1006 12.2283 9.25716
Ar 18.3407 20.8287 9.35621
Ar 39.4144 3.66748 13.6165
